parallel/peak_load/20pc/TNB_DUMA_VLN.Txt

SYMMETRICAL COMPONENT VOLTAGES BY BUS (for 3-phase buses)

Bus               Mag:   V1 (kV)    p.u.     V2 (kV)   %V2/V1    V0 (kV)    %V0/V1

ppu_duma_33kv        18.98     0.9963  9.271E-009  4.884E-008 1.239E-009 6.529E-009
ppu_duma_11kv        6.214     0.9784  3.228E-009  5.195E-008 1.404E-011 2.259E-010
rpplngi2             6.211     0.9779  3.226E-009  5.195E-008 1.472E-011 2.37E-010
pdtjlnmasjid         6.208     0.9776  3.225E-009  5.195E-008 1.528E-011 2.46E-010
bella                6.207     0.9774  3.225E-009  5.195E-008 1.567E-011 2.524E-010
pstpdgn              6.206     0.9772  3.224E-009  5.195E-008 1.587E-011 2.556E-010
pamdra               6.215     0.9787  3.228E-009  5.194E-008 1.401E-011 2.255E-010
duma4                6.221     0.9795  3.231E-009  5.194E-008 1.454E-011 2.337E-010
plsdra                6.23      0.981  3.235E-009  5.193E-008 2.213E-011 3.551E-010
ssu_uptwres_ir1      6.229     0.9808  3.235E-009  5.193E-008 2.227E-011 3.575E-010
atria_1              6.229     0.9808  3.235E-009  5.193E-008 1.423E-011 2.285E-010
hawker                6.23      0.981  3.235E-009  5.193E-008 1.938E-011 3.111E-010
prmte                 6.19     0.9747  3.217E-009  5.197E-008 2.939E-011 4.747E-010
prmta                6.187     0.9742  3.216E-009  5.198E-008 2.96E-011 4.783E-010
pmontb               6.188     0.9743  3.216E-009  5.198E-008 3.042E-011 4.916E-010
duma7                6.216     0.9788  3.229E-009  5.194E-008 1.412E-011 2.271E-010
haus                  6.23      0.981  3.235E-009  5.193E-008  1.7E-011 2.729E-010
duma6                 6.27     0.9872  3.254E-009  5.19E-008 4.708E-011 7.509E-010
duma13               6.311     0.9937  3.273E-009  5.187E-008 8.01E-011 1.269E-009
ssu_duma5_im2        6.313     0.9941  3.275E-009  5.187E-008 8.045E-011 1.274E-009
plngi_b              6.225     0.9801  3.233E-009  5.193E-008 1.385E-011 2.225E-010
plngi_d              6.232     0.9814  3.236E-009  5.193E-008 1.368E-011 2.196E-010
pdtlitrak            6.247     0.9836  3.243E-009  5.191E-008 1.45E-011 2.321E-010
duma12                6.26     0.9857  3.249E-009  5.19E-008 1.499E-011 2.395E-010
tmngh4               6.276     0.9882  3.256E-009  5.188E-008 2.393E-011 3.813E-010
ssu_tmegah3_ir1      6.282     0.9892  3.259E-009  5.188E-008 2.907E-011 4.628E-010
tmngh2               6.284     0.9895  3.26E-009  5.187E-008 3.125E-011 4.973E-010
sprk9                6.195     0.9755  3.219E-009  5.197E-008 1.612E-011 2.601E-010
bomba                6.195     0.9755  3.219E-009  5.197E-008 1.726E-011 2.787E-010
sprk8                6.195     0.9755  3.219E-009  5.197E-008 2.039E-011 3.292E-010
ssu_uptwres_im2      6.213     0.9783  3.227E-009  5.195E-008 1.63E-011 2.623E-010
maybank              6.222     0.9797  3.232E-009  5.194E-008 1.647E-011 2.647E-010
duma8                6.224       0.98  3.232E-009  5.194E-008 1.67E-011 2.684E-010
ssu_dsarcntr_ir1      6.22     0.9794  3.231E-009  5.194E-008 1.388E-011 2.231E-010
duma9                6.222     0.9797  3.231E-009  5.194E-008 1.475E-011 2.371E-010
duma1                6.225     0.9802  3.233E-009  5.193E-008 1.513E-011 2.431E-010
elite                6.226     0.9804  3.233E-009  5.193E-008 1.528E-011 2.454E-010
duma10               6.233     0.9814  3.236E-009  5.193E-008 1.398E-011 2.244E-010
balaipolis           6.233     0.9815  3.237E-009  5.193E-008 1.399E-011 2.244E-010
ppu_duma_vcb1            0          0          0          0         0         0
